/*--------------------------------*- C++ -*----------------------------------*\
  =========                 |
  \\      /  F ield         | OpenFOAM: The Open Source CFD Toolbox
   \\    /   O peration     | Website:  https://openfoam.org
    \\  /    A nd           | Version:  dev
     \\/     M anipulation  |
\*---------------------------------------------------------------------------*/
FoamFile
{
    version     2.0;
    format      ascii;
    class       dictionary;
    location    "constant";
    object      phaseProperties;
}
// * * * * * * * * * * * * * * * * * * * * * * * * * * * * * * * * * * * * * //

type    basicTwoPhaseSystem;

phases (particles air);

particles
{
    type          purePhaseModel;

    diameterModel constant;
    constantCoeffs
    {
        d               3e-4;
    }

    alphaMax        0.62;
    residualAlpha   1e-6;
}

air
{
    type          purePhaseModel;

    diameterModel constant;
    constantCoeffs
    {
        d               1;
    }

    residualAlpha   0;
}

blending
{
    default
    {
        type            none;
        continuousPhase air;
    }
}

surfaceTension
(
    (air and particles)
    {
        type            constant;
        sigma           0;
    }
);


aspectRatio
(
);

drag
(
    (particles in air)
    {
        type            GidaspowErgunWenYu;
        residualRe      1e-3;
        swarmCorrection
        {
            type        none;
        }
    }
);

virtualMass
(
);

heatTransfer
(
    (particles in air)
    {
        type            RanzMarshall;
        residualAlpha   1e-4;
    }
);

phaseTransfer
(
);

lift
(
);

wallLubrication
(
);

turbulentDispersion
(
);

kineticTheory
{
    alphaMax                0.62;
    residualAlpha           1e-4;
    alphaMinFriction        0.5;

    radialModel             SinclairJackson;
    viscosityModel          Gidaspow;
    conductivityModel       Gidaspow;
    granularPressureModel   Lun;
    frictionalStressModel   JohnsonJackson;

    coeffRest
    (
        (particles and particles)   0.8
    );
    coeffFric
    (
        (particles and particles)   0.1
    );

    JohnsonJacksonCoeffs
    {
        alphaMinFriction        0.5;
        Fr                      0.05;
        eta                     2;
        p                       5;
        phi                     28.5;
        alphaDeltaMin           0.05;
    }
}

// Minimum allowable pressure
pMin            10000;


// ************************************************************************* //
