/*--------------------------------*- C++ -*----------------------------------*\
| =========                 |                                                 |
| \\      /  F ield         | OpenFOAM: The Open Source CFD Toolbox           |
|  \\    /   O peration     | Version:  dev                                   |
|   \\  /    A nd           | Web:      www.OpenFOAM.org                      |
|    \\/     M anipulation  |                                                 |
\*---------------------------------------------------------------------------*/
FoamFile
{
    version     2.0;
    format      ascii;
    class       dictionary;
    location    "constant";
    object      thermo.compressibleGas;
}
// * * * * * * * * * * * * * * * * * * * * * * * * * * * * * * * * * * * * * //
species
137
(
HE
AR
N2
O2
H2
H2O
H2O2
CO
CO2
CH2O
HCOOH
HCO3H
CH4
CH3OH
CH3OOH
C2H2
CH2CO
C2H2O2
C2H4
C2H4O
CH3CHO
CH3COOH
C2H4O2
C2-OQOOH
CH3CO3H
C2H6
C2H5OH
GLIET
C2H5OOH
C3H2
AC3H4
PC3H4
C2H3CHO
C3H4O2
C3H4O3
C3H6
C2H5CHO
CH3COCH3
C3H6O
C3H6O2
C3H5OOH
ACETOL
C3-OQOOH
C3H8
IC3H7OH
NC3H7OH
C3H7OOH
GLYCEROL
C4H2
C4H4
CH2CCHCHO
C4H4O
C4H6
IC3H5CHO
C4H6O2
IC4H8
NC4H8
CYC5H4O
C5H4O2
CYC5H6
MEFU2
C5H8
C5H8O4
C6H6
C6H5OH
C6H6O3
MCPTD
DMF
C6H8O4
C6H10O5
C6H5CHO
C7H8
C6H5OCH3
CRESOL
C8H10O3
C9H10O2
C10H8
C11H12O4
O
H
OH
HO2
C
CH
HCO
HCO3
CH2S
CH2
CH3
CH2OH
CH3O
CH3OO
C2H
HCCO
C2H3
CH3CO
CH2CHO
CH3CO3
C2H5
C2H4OH
CH3CHOH
C2H5OO
C2-QOOH
C2-OOQOOH
C3H3
CH2CCH3
CHCHCH3
CH2CHCH2
RALD3B
RALD3G
CH3COCH2
C3H5OO
NC3H7
IC3H7
NC3H7O
IC3H7OO
IC3-QOOH
NC3H7OO
NC3-QOOH
IC3-OOQOOH
NC3-OOQOOH
C4H3
C4H3O
C4H5
IC4H7
CH2C3H5
SC4H7
CYC5H5
C5H5O
C5H7
C6H5
C6H5O
DMF-3YL
C6H4CH3
C7H7
RCRESOLC
RCRESOLO
);

HE
{
    specie
    {
        molWeight   4.0026;
    }
    equationOfState
    {
        rho             0.0631; 
    }
    thermodynamics
    {
        Cp          5192.875;
        Hf          0;
    }
    transport
    {
        mu          3.7e-05;
        Pr          0.72;
    }
}

AR
{
    specie
    {
        molWeight   39.948;
    }
    equationOfState
    {
        rho             0.6298; 
    }
    thermodynamics
    {
        Cp          520.3014;
        Hf          0;
    }
    transport
    {
        mu          3.5e-05;
        Pr          0.7;
    }
}

N2
{
    specie
    {
        molWeight   28.9;
    }
    equationOfState
    {
        rho             0.5044; 
    }
    thermodynamics
    {
        Cp          1113.5;
        Hf          0;
    }
    transport
    {
        mu          3.4e-05;
        Pr          0.7;
    }
}

O2
{
    specie
    {
        molWeight       31.9988;
    }
    equationOfState
    {
        rho             0.5044; 
    }
    thermodynamics
    {
        Cp              1046.629; 
        Hf              0;
    }
    transport
    {
        mu              4.1e-5;
        Pr              0.74;
    }
}

H2
{
    specie
    {
        molWeight       2.01594;
    }
    equationOfState
    {
        rho             0.0317; 
    }
    thermodynamics
    {
        Cp              14676.629; 
        Hf              0;
    }
    transport
    {
        mu              1.5e-5;
        Pr              0.67;
    }
}

H2O
{
    specie
    {
        molWeight       18.01534;
    }
    equationOfState
    {
        rho             0.2856; 
    }
    thermodynamics
    {
        Cp              2125.5; 
        Hf             -13433.33e3 ;
    }
    transport
    {
        mu              2.4e-5;
        Pr              1;
    }
}

H2O2
{
    specie
    {
        molWeight   34.0147;
    }
    equationOfState
    {
        rho             0.5362; 
    }
    thermodynamics
    {
        Cp          1740.685;
        Hf          -4001.484e3;
    }
    transport
    {
        mu          3.2e-05;
        Pr          0.7;
    }
}

CO
{
    specie
    {
        molWeight       28.01055;
    }
    equationOfState
    {
        rho            0.442; 
    }
    thermodynamics
    {
        Cp              1131.685; 
        Hf              -3946.43e3;
    }
    transport
    {
        mu              3.2e-5;
        Pr              0.7;
    }
}

CO2
{
    specie
    {
        molWeight       44.00995;
    }
    equationOfState
    {
        rho             0.689; 
    }
    thermodynamics
    {
        Cp              1159.855; 
        Hf              -8943.18e3;
    }
    transport
    {
        mu              3.5e-5;
        Pr              0.72;
    }
}

CH2O
{
    specie
    {
        molWeight       30.02649;
    }
    equationOfState
    {
        rho             0.4733; 
    }
    thermodynamics
    {
        Cp              1829.05; 
        Hf              -3863.33e3;
    }
    transport
    {
        mu              2.5e-5;
        Pr              0.7;
    }
}

HCOOH
{
    specie
    {
        molWeight       46.02589;
    }
    equationOfState
    {
        rho             0.7256;
    }
    thermodynamics
    {
        Cp              1645.058; 
        Hf              -9255.217e3;
    }
    transport
    {
        mu              4.5e-5;
        Pr              0.7;
    }
}

HCO3H
{
    specie
    {
        molWeight   62.0253;
    }
    equationOfState
    {
        rho             0.9779; 
    }
    thermodynamics
    {
        Cp          1594.123;
        Hf          -4546.961e3;
    }
    transport
    {
        mu          3.1e-05;
        Pr          0.71;
    }
}

CH4
{
    specie
    {
        molWeight       16.04303;
    }
    equationOfState
    {
        rho             0.253; 
    }
    thermodynamics
    {
        Cp              3829.175; 
        Hf              -4658.31e3;
    }
    transport
    {
        mu              2.2e-5;
        Pr              0.72;
    }
}
CH3OH
{
    specie
    {
        molWeight       32.04243;
    }
    equationOfState
    {
        rho             0.505; 
    }
    thermodynamics
    {
        Cp              2434.91; 
        Hf              -6289.08e3;
    }
    transport
    {
        mu              2.6e-5;
        Pr              0.7;
    }
}

CH3OOH
{
    specie
    {
        molWeight   48.04183;
    }
    equationOfState
    {
        rho             0.7574; 
    }
    thermodynamics
    {
        Cp          2124.483;
        Hf          -2756.598e3;
    }
    transport
    {
        mu          2.7e-05;
        Pr          0.68;
    }
}

C2H2
{
    specie
    {
        molWeight   26.0824;
    }
    equationOfState
    {
        rho             0.410524; 
    }
    thermodynamics
    {
        Cp          2428.955;
        Hf          8708.322e3;
    }
    transport
    {
        mu          1.8e-05;
        Pr          0.67;
    }
}

CH2CO
{
    specie
    {
        molWeight   42.0376;
    }
    equationOfState
    {
        rho             0.66277; 
    }
    thermodynamics
    {
        Cp          1850.352;
        Hf          -1233.892e3;
    }
    transport
    {
        mu          3.4e-05;
        Pr          0.7;
    }
}

C2H2O2
{
    specie
    {
        molWeight       58.03704;
    }
    equationOfState
    {
        rho              0.903; 
    }
    thermodynamics
    {
        Cp              1200; 
        Hf             -3650.18e3;
    }
    transport
    {
        mu              5e-5;
        Pr              0.7;
    }
}

C2H4
{
    specie
    {
        molWeight       28.05418;
    }
    equationOfState
    {
        rho              0.437; 
    }
    thermodynamics
    {
        Cp              2933.208; 
        Hf              1867.501e3;
    }
    transport
    {
        mu              2.3e-5;
        Pr              0.7;
    }
}

C2H4O
{
    specie
    {
        molWeight   44.05358;
    }
    equationOfState
    {
        rho             0.694558; 
    }
    thermodynamics
    {
        Cp          2292.44;
        Hf          -1200.010e3;
    }
    transport
    {
        mu          3.4e-05;
        Pr          0.7;
    }
}

CH3CHO
{
    specie
    {
        molWeight       44.05358;
    }
    equationOfState
    {
        rho            0.6863; 
    }
    thermodynamics
    {
        Cp              2250.125; 
        Hf              -3756.09e3;
    }
    transport
    {
        mu              3.4e-5;
        Pr              0.72;
    }
}

CH3COOH
{
    specie
    {
        molWeight       60.05298;
    }
    equationOfState
    {
        rho             0.9467; 
    }
    thermodynamics
    {
        Cp              1996.039; 
        Hf              -8075.033e3;
    }
    transport
    {
        mu              4.8e-5;
        Pr              0.7;
    }
}

C2H4O2
{
    specie
    {
        molWeight       60.05298;
    }
    equationOfState
    {
        rho             0.946;
    }
    thermodynamics
    {
        Cp              1450; 
        Hf              -5125.4e3;
    }
    transport
    {
       mu              5e-5;
       Pr              0.7;
    }
}

C2-OQOOH
{
    specie
    {
        molWeight   76.05238;
    }
    equationOfState
    {
        rho             1.1991; 
    }
    thermodynamics
    {
        Cp          1877.364;
        Hf          -3251.947e3;
    }
    transport
    {
        mu          3.9e-05;
        Pr          0.72;
    }
}

CH3CO3H
{
    specie
    {
        molWeight   76.05238;
    }
    equationOfState
    {
        rho             1.1991; 
    }
    thermodynamics
    {
        Cp          1801.271;
        Hf          -4439.066e3;
    }
    transport
    {
        mu          3.6e-05;
        Pr          0.73;
    }
}

C2H6
{
    specie
    {
        molWeight   30.07012;
    }
    equationOfState
    {
        rho             0.47409; 
    }
    thermodynamics
    {
        Cp          3511.03;
        Hf          -2795.030e3;
    }
    transport
    {
        mu          2.8e-05;
        Pr          0.705;
    }
}

C2H5OH
{
    specie
    {
        molWeight       46.06952;
    }
    equationOfState
    {
        rho             0.725; 
    }
    thermodynamics
    {
        Cp              2600; 
        Hf              -5120.85e3;
    }
    transport
    {
        mu              3.2e-5;
        Pr              0.7;
    }
}

GLIET
{
    specie
    {
        molWeight   62.0682;
    }
    equationOfState
    {
        rho             0.9786; 
    }
    thermodynamics
    {
        Cp          2271.327;
        Hf          -6201.772e3;
    }
    transport
    {
        mu          3.6e-05;
        Pr          0.71;
    }
}

C2H5OOH
{
    specie
    {
        molWeight   62.06892;
    }
    equationOfState
    {
        rho             0.97859; 
    }
    thermodynamics
    {
        Cp          2351.452;
        Hf          -2640.296e2;
    }
    transport
    {
        mu          3.3e-05;
        Pr          0.69;
    }
}

C3H2
{
    specie
    {
        molWeight   38.04939;
    }
    equationOfState
    {
        rho             0.59989; 
    }
    thermodynamics
    {
        Cp          2044.503;
        Hf          14251.126e3;
    }
    transport
    {
        mu          2.9e-05;
        Pr          0.67;
    }
}

AC3H4
{
    specie
    {
        molWeight   40.06533;
    }
    equationOfState
    {
        rho             0.631678; 
    }
    thermodynamics
    {
        Cp          2609.577;
        Hf          4970.908e3;
    }
    transport
    {
        mu          2.4e-05;
        Pr          0.7;
    }
}

PC3H4
{
    specie
    {
        molWeight   40.06533;
    }
    equationOfState
    {
        rho             0.63167; 
    }
    thermodynamics
    {
        Cp          2592.366;
        Hf          4626.939e3;
    }
    transport
    {
        mu          2.4e-05;
        Pr          0.7;
    }
}

C2H3CHO
{
    specie
    {
        molWeight       56.06473;
    }
    equationOfState
    {
        rho             0.8839;
    }
    thermodynamics
    {
        Cp              2249.853; 
        Hf              -1516.503;
    }
    transport
    {
        mu              5e-5;
        Pr              0.7;
    }
}

C3H4O2
{
    specie
    {
        molWeight   72.06413;
    }
    equationOfState
    {
        rho             1.136175; 
    }
    thermodynamics
    {
        Cp          2044.993;
        Hf          -3626.308e3;
    }
    transport
    {
        mu          4.1e-05;
        Pr          0.72;
    }
}

C3H4O3
{
    specie
    {
        molWeight   88.06353;
    }
    equationOfState
    {
        rho             1.388427; 
    }
    thermodynamics
    {
        Cp          1806.781;
        Hf          -4883.089e3;
    }
    transport
    {
        mu          4.4e-05;
        Pr          0.7;
    }
}

C3H6
{
    specie
    {
        molWeight   42.08127;
    }
    equationOfState
    {
        rho             0.66346; 
    }
    thermodynamics
    {
        Cp          2998.715;
        Hf          482.353e3;
    }
    transport
    {
        mu          3.4e-05;
        Pr          0.7;
    }
}

C2H5CHO
{
    specie
    {
        molWeight       58.08067;
    }
    equationOfState
    {
        rho             0.903; 
    }
    thermodynamics
    {
        Cp              2602.847; 
        Hf              -3249.023e3;
    }
    transport
    {
        mu              5e-5;
        Pr              0.7;
    }
}

CH3COCH3
{
    specie
    {
        molWeight   58.08067;
    }
    equationOfState
    {
        rho             0.91512; 
    }
    thermodynamics
    {
        Cp          2464.856;
        Hf          -3715.306e3;
    }
    transport
    {
        mu          3.6e-05;
        Pr          0.707;
    }
}

C3H6O
{
    specie
    {
        molWeight   58.08067;
    }
    equationOfState
    {
        rho             0.9157; 
    }
    thermodynamics
    {
        Cp          2530.587;
        Hf          -1601.234e3;
    }
    transport
    {
        mu          3.4e-05;
        Pr          0.7;
    }
}

C3H6O2
{
    specie
    {
        molWeight       74.08007;
    }
    equationOfState
    {
        rho            1.1679; 
    }
    thermodynamics
    {
        Cp              2187.472; 
        Hf              -4535.959e3;
    }
    transport
    {
        mu              3.5e-5;
        Pr              0.7;
    }
}

C3H5OOH
{
    specie
    {
        molWeight   74.08007;
    }
    equationOfState
    {
        rho             1.16796; 
    }
    thermodynamics
    {
        Cp          2308.225;
        Hf          -760.807e3;
    }
    transport
    {
        mu          4.4e-05;
        Pr          0.7;
    }
}

ACETOL
{
    specie
    {
        molWeight   74.08007;
    }
    equationOfState
    {
        rho             1.16786; 
    }
    thermodynamics
    {
        Cp          2163.48;
        Hf          -4937.328e3;
    }
    transport
    {
        mu          4.6e-05;
        Pr          0.71;
    }
}

C3-OQOOH
{
    specie
    {
        molWeight   90.07947;
    }
    equationOfState
    {
        rho             1.4202; 
    }
    thermodynamics
    {
        Cp          2156.618;
        Hf          -3141.372e3;
    }
    transport
    {
        mu          4.1e-05;
        Pr          0.71;
    }
}

C3H8
{
    specie
    {
        molWeight   44.09721;
    }
    equationOfState
    {
        rho             0.69524; 
    }
    thermodynamics
    {
        Cp          3437.565;
        Hf          -2359.170e3;
    }
    transport
    {
        mu          3.3e-05;
        Pr          0.68;
    }
}

IC3H7OH
{
    specie
    {
        molWeight   60.09661;
    }
    equationOfState
    {
        rho             0.94795; 
    }
    thermodynamics
    {
        Cp          2862.855;
        Hf          -4560.969e3;
    }
    transport
    {
        mu          4.1e-05;
        Pr          0.72;
    }
}

NC3H7OH
{
    specie
    {
        molWeight   60.09661;
    }
    equationOfState
    {
        rho             0.947495; 
    }
    thermodynamics
    {
        Cp          2717.366;
        Hf          -4242.549e3;
    }
    transport
    {
        mu          3.7e-05;
        Pr          0.7;
    }
}

C3H7OOH
{
    specie
    {
        molWeight   76.09601;
    }
    equationOfState
    {
        rho             1.199745; 
    }
    thermodynamics
    {
        Cp          2586.676;
        Hf          -2505.003e3;
    }
    transport
    {
        mu          4.4e-05;
        Pr          0.72;
    }
}

GLYCEROL
{
    specie
    {
        molWeight   92.09541;
    }
    equationOfState
    {
        rho             1.451995; 
    }
    thermodynamics
    {
        Cp          2247.171;
        Hf          -6229.150e3;
    }
    transport
    {
        mu          4.8e-05;
        Pr          0.71;
    }
}

C4H2
{
    specie
    {
        molWeight   50.06054;
    }
    equationOfState
    {
        rho             0.789265; 
    }
    thermodynamics
    {
        Cp          2083.134;
        Hf          9336.308e3;
    }
    transport
    {
        mu          3.6e-05;
        Pr          0.69;
    }
}

C4H4
{
    specie
    {
        molWeight   52.07648;
    }
    equationOfState
    {
        rho             0.821048; 
    }
    thermodynamics
    {
        Cp          2448.437;
        Hf          5463.515e3;
    }
    transport
    {
        mu          3.5e-05;
        Pr          0.7;
    }
}

CH2CCHCHO
{
    specie
    {
        molWeight   68.07588;
    }
    equationOfState
    {
        rho             1.073298; 
    }
    thermodynamics
    {
        Cp          2131.5050;
        Hf          961.073e3;
    }
    transport
    {
        mu          3.8e-05;
        Pr          0.715;
    }
}

C4H4O
{
    specie
    {
        molWeight   68.07588;
    }
    equationOfState
    {
        rho             1.073298; 
    }
    thermodynamics
    {
        Cp          2230.234;
        Hf          -624.512e3;
    }
    transport
    {
        mu          3.2e-05;
        Pr          0.71;
    }
}

C4H6
{
    specie
    {
        molWeight   54.09242;
    }
    equationOfState
    {
        rho             0.852832; 
    }
    thermodynamics
    {
        Cp          2766.898;
        Hf          2035.111e3;
    }
    transport
    {
        mu          3.1e-05;
        Pr          0.67;
    }
}

IC3H5CHO
{
    specie
    {
        molWeight   70.09182;
    }
    equationOfState
    {
        rho             1.10582; 
    }
    thermodynamics
    {
        Cp          2452.567;
        Hf          -1632.008e3;
    }
    transport
    {
        mu          4.2e-05;
        Pr          0.712;
    }
}

C4H6O2
{
    specie
    {
        molWeight   86.09122;
    }
    equationOfState
    {
        rho             1.3573; 
    }
    thermodynamics
    {
        Cp          2106.807;
        Hf          -3810.213e3;
    }
    transport
    {
        mu          4.4e-05;
        Pr          0.72;
    }
}

IC4H8
{
    specie
    {
        molWeight   56.10836;
    }
    equationOfState
    {
        rho             0.884616; 
    }
    thermodynamics
    {
        Cp          3066.491;
        Hf          -284.537e3;
    }
    transport
    {
        mu          3.8e-05;
        Pr          0.7;
    }
}

NC4H8
{
    specie
    {
        molWeight   56.10836;
    }
    equationOfState
    {
        rho             0.884616; 
    }
    thermodynamics
    {
        Cp          3055.536;
        Hf          -10.718e3;
    }
    transport
    {
        mu          3.7e-05;
        Pr          0.71;
    }
}

CYC5H4O
{
    specie
    {
        molWeight   80.8703;
    }
    equationOfState
    {
        rho             1.262668; 
    }
    thermodynamics
    {
        Cp          2081.796;
        Hf          697.775e3;
    }
    transport
    {
        mu          4.5e-05;
        Pr          0.72;
    }
}

C5H4O2
{
    specie
    {
        molWeight       96.08643;
    }
    equationOfState
    {
        rho             1.5147; 
    }
    thermodynamics
    {
        Cp              1885.771; 
        Hf              -1572.0483e3;
    }
    transport
    {
        mu              4.6e-5;
        Pr              0.71;
    }
}

CYC5H6
{
    specie
    {
        molWeight   66.10357;
    }
    equationOfState
    {
        rho             1.042202; 
    }
    thermodynamics
    {
        Cp          2575;
        Hf          2030.953e3;
    }
    transport
    {
        mu          3.8e-05;
        Pr          0.7;
    }
}

MEFU2
{
    specie
    {
        molWeight   82.10297;
    }
    equationOfState
    {
        rho             1.294452; 
    }
    thermodynamics
    {
        Cp          2240.409;
        Hf          -986.353e3;
    }
    transport
    {
        mu          4.8e-05;
        Pr          0.72;
    }
}

C5H8
{
    specie
    {
        molWeight   68.11951;
    }
    equationOfState
    {
        rho             1.073986; 
    }
    thermodynamics
    {
        Cp          2851.787;
        Hf          1108.388e3;
    }
    transport
    {
        mu          3.9e-05;
        Pr          0.71;
    }
}

C5H8O4
{
    specie
    {
        molWeight       132.11711;
    }
    equationOfState
    {
        rho             2.083; 
    }
    thermodynamics
    {
        Cp              2060.739; 
        Hf              -4805.26e3;
    }
    transport
    {
        mu              5.1e-5;
        Pr              0.71;
    }
}

C6H6
{
    specie
    {
        molWeight   78.1147;
    }
    equationOfState
    {
        rho             1.23157; 
    }
    thermodynamics
    {
        Cp          2410.727;
        Hf          1059.142e3;
    }
    transport
    {
        mu          4.1e-05;
        Pr          0.7;
    }
}

C6H5OH
{
    specie
    {
        molWeight       94.11412;
    }
    equationOfState
    {
        rho            1.484; 
    }
    thermodynamics
    {
        Cp              2222.267; 
        Hf              -1023.74e3;
    }
    transport
    {
        mu              4.6e-5;
        Pr              0.71;
    }
}

C6H6O3
{
    specie
    {
        molWeight       126.11292;
    }
    equationOfState
    {
        rho             1.956; 
    }
    thermodynamics
    {
        Cp              18870.805; 
        Hf             -2649.87e3;
    }
    transport
    {
        mu              4.3e-5;
        Pr              0.7;
    }
}

MCPTD
{
    specie
    {
        molWeight   80.13066;
    }
    equationOfState
    {
        rho             1.26335; 
    }
    thermodynamics
    {
        Cp          2642.276;
        Hf          1309.828e3;
    }
    transport
    {
        mu          3.6e-05;
        Pr          0.7;
    }
}

DMF
{
    specie
    {
        molWeight   96.13006;
    }
    equationOfState
    {
        rho             1.515606; 
    }
    thermodynamics
    {
        Cp          2363.386;
        Hf          -1305.122e3;
    }
    transport
    {
        mu          4.15e-05;
        Pr          0.71;
    }
}

C6H8O4
{
    specie
    {
        molWeight   144.1283;
    }
    equationOfState
    {
        rho             2.272355; 
    }
    thermodynamics
    {
        Cp          2053.448;
        Hf          -4049.372e3;
    }
    transport
    {
        mu          4.4e-05;
        Pr          0.72;
    }
}

C6H10O5
{
    specie
    {
        molWeight       162.1436;
    }
    equationOfState
    {
        rho            2.553; 
    }
    thermodynamics
    {
        Cp              2114.466; 
        Hf              -5188.68e3 ;
    }
    transport
    {
        mu              4.8e-5;
        Pr              0.689;
    }
}

C6H5CHO
{
    specie
    {
        molWeight   106.1253;
    }
    equationOfState
    {
        rho             1.673192; 
    }
    thermodynamics
    {
        Cp          2193.418;
        Hf          -357.390e3;
    }
    transport
    {
        mu          3.75e-05;
        Pr          0.7;
    }
}

C7H8
{
    specie
    {
        molWeight   92.1418;
    }
    equationOfState
    {
        rho             1.4527; 
    }
    thermodynamics
    {
        Cp          2490.83;
        Hf          541.111e3;
    }
    transport
    {
        mu          3.8e-05;
        Pr          0.72;
    }
}

C6H5OCH3
{
    specie
    {
        molWeight       108.14121;
    }
    equationOfState
    {
        rho             1.7048; 
    }
    thermodynamics
    {
        Cp              2361.421; 
        Hf              -661.605e3;
    }
    transport
    {
        mu              4.6e-5;
        Pr              0.7;
    }
}


CRESOL
{
    specie
    {
        molWeight   108.1412;
    }
    equationOfState
    {
        rho             1.7049; 
    }
    thermodynamics
    {
        Cp          2340.911;
        Hf          -1191.203e3;
    }
    transport
    {
        mu          4.1e-05;
        Pr          0.698;
    }
}

C8H10O3
{
    specie
    {
        molWeight   154.1671;
    }
    equationOfState
    {
        rho             2.43063; 
    }
    thermodynamics
    {
        Cp          2969.024;
        Hf          -3081.054e3;
    }
    transport
    {
        mu          3.8e-05;
        Pr          0.7;
    }
}

C9H10O2
{
    specie
    {
        molWeight       150.17885;
    }
    equationOfState
    {
        rho             2.3423; 
    }
    thermodynamics
    {
        Cp             2264.889;
        Hf              -1372.35e3;
    }
    transport
    {
        mu              4.5e-5;
        Pr              0.71;
    }
}

C10H8
{
    specie
    {
        molWeight   128.1753;
    }
    equationOfState
    {
        rho             2.02083; 
    }
    thermodynamics
    {
        Cp          2297.489;
        Hf          1174.947e3;
    }
    transport
    {
        mu          4.4e-05;
        Pr          0.7;
    }
}

C11H12O4
{
    specie
    {
        molWeight       208.21589;
    }
    equationOfState
    {
        rho              3.276; 
    }
    thermodynamics
    {
        Cp              2198.323; 
        Hf              -2333.38e3;//0;
    }
    transport
    {
        mu              4.8e-5;
        Pr              0.7;
    }
}

O
{
    specie
    {
        molWeight   15.9994;
    }
    equationOfState
    {
        rho             0.25225; 
    }
    thermodynamics
    {
        Cp          1312.14;
        Hf          15574.449e3;
    }
    transport
    {
        mu          2.4e-05;
        Pr          0.67;
    }
}

H
{
    specie
    {
        molWeight   1.00787;
    }
    equationOfState
    {
        rho             0.015892; 
    }
    thermodynamics
    {
        Cp          20620.65;
        Hf          216241.533e3;
    }
    transport
    {
        mu          2.8e-05;
        Pr          0.71;
    }
}

OH
{
    specie
    {
        molWeight   17.00737;
    }
    equationOfState
    {
        rho             0.268142; 
    }
    thermodynamics
    {
        Cp          1765.945;
        Hf          2192.063e3;
    }
    transport
    {
        mu          3.1e-05;
        Pr          0.7;
    }
}

HO2
{
    specie
    {
        molWeight   33.00677;
    }
    equationOfState
    {
        rho             0.520391; 
    }
    thermodynamics
    {
        Cp          1352.05;
        Hf          379.609e3;
    }
    transport
    {
        mu          3.2e-05;
        Pr          0.7;
    }
}

C
{
    specie
    {
        molWeight   12.01115;
    }
    equationOfState
    {
        rho             0.18937; 
    }
    thermodynamics
    {
        Cp          1731.331;
        Hf          59663.983e3;
    }
    transport
    {
        mu          2.7e-05;
        Pr          0.69;
    }
}

CH
{
    specie
    {
        molWeight   13.01912;
    }
    equationOfState
    {
        rho             0.205262; 
    }
    thermodynamics
    {
        Cp          2362.341;
        Hf          45640.253e3;
    }
    transport
    {
        mu          2.8e-05;
        Pr          0.7;
    }
}

HCO
{
    specie
    {
        molWeight   29.01852;
    }
    equationOfState
    {
        rho             0.457512; 
    }
    thermodynamics
    {
        Cp          1531.075;
        Hf          1499.367e3;
    }
    transport
    {
        mu          3.05e-05;
        Pr          0.71;
    }
}

HCO3
{
    specie
    {
        molWeight   61.01732;
    }
    equationOfState
    {
        rho             0.962011; 
    }
    thermodynamics
    {
        Cp          1291.225;
        Hf          -2147.055e3;
    }
    transport
    {
        mu          3.5e-05;
        Pr          0.7;
    }
}

CH2S
{
    specie
    {
        molWeight   14.02709;
    }
    equationOfState
    {
        rho             0.221154; 
    }
    thermodynamics
    {
        Cp          2902.98;
        Hf          30276.961e3;
    }
    transport
    {
        mu          1.8e-05;
        Pr          0.71;
    }
}

CH2
{
    specie
    {
        molWeight   14.02709;
    }
    equationOfState
    {
        rho             0.221154; 
    }
    thermodynamics
    {
        Cp          2935.287;
        Hf          27587.119e3;
    }
    transport
    {
        mu          1.9e-05;
        Pr          0.7;
    }
}

CH3
{
    specie
    {
        molWeight   15.03506;
    }
    equationOfState
    {
        rho             0.237046; 
    }
    thermodynamics
    {
        Cp          3540.32;
        Hf          9691.284e3;
    }
    transport
    {
        mu          2.5e-05;
        Pr          0.688;
    }
}

CH2OH
{
    specie
    {
        molWeight   31.03446;
    }
    equationOfState
    {
        rho             0.489296; 
    }
    thermodynamics
    {
        Cp          2329.336;
        Hf          -555.860e3;
    }
    transport
    {
        mu          3.1e-05;
        Pr          0.71;
    }
}

CH3O
{
    specie
    {
        molWeight   31.03446;
    }
    equationOfState
    {
        rho             0.4893; 
    }
    thermodynamics
    {
        Cp          2191.554;
        Hf          524.061e3;
    }
    transport
    {
        mu          2.9e-05;
        Pr          0.7;
    }
}

CH3OO
{
    specie
    {
        molWeight   47.03386;
    }
    equationOfState
    {
        rho             0.741545; 
    }
    thermodynamics
    {
        Cp          1812.35;
        Hf          382.488e3;
    }
    transport
    {