/*--------------------------------*- C++ -*----------------------------------*\
| =========                 |                                                 |
| \\      /  F ield         | OpenFOAM: The Open Source CFD Toolbox           |
|  \\    /   O peration     | Version:  dev                                   |
|   \\  /    A nd           | Web:      www.OpenFOAM.org                      |
|    \\/     M anipulation  |                                                 |
\*---------------------------------------------------------------------------*/
FoamFile
{
    version     2.0;
    format      ascii;
    class       dictionary;
    location    "constant";
    object      thermo.incompressiblePoly;
}
// * * * * * * * * * * * * * * * * * * * * * * * * * * * * * * * * * * * * * //

species
41
(
CELL
CELLA
CHAR
GMSW  //25
XYHW
HCE1
HCE2
LIGC
LIGCC //40
LIGH
LIGOH //45
LIGO
LIG
HMWL
C2H4O2
C2H2O2  //10
CH3CHO
C6H6O3
C2H5CHO
CH3OH
CH2O  //15
CO
CO2
H2
H2O
HCOOH //20
C3H6O2
C6H10O5
C5H8O4
C5H4O2 //30
C2H5OH
CH3COOH
GCH3OH
C9H10O2
C6H5OH
C2H4
CH4
C11H12O4
C6H5OCH3 //50
C2H3CHO
O2
)
;

CELL
{
    specie
    {
        molWeight       162.1436;
    }
    equationOfState
    {
        rho             700;//
    }
    thermodynamics
    {
        Cp             2000 ;//710;
        Hf              -6368.56e3;
    }
    transport
    {
        mu              0;
        Pr              0.7;
    }
}

CELLA
{
    specie
    {
        molWeight       162.1436;
    }
    equationOfState
    {
        rho             700;//
    }
    thermodynamics
    {
        Cp              2000;//710;
        Hf             -5920.87e3 ;
    }
    transport
    {
        mu              0;
        Pr              0.7;
    }
}

C2H4O2
{
    specie
    {
        molWeight       60.05298;
    }
    equationOfState
    {
        rho             0.946;//
    }
    thermodynamics
    {
        Cp              2000;//710;
        Hf              -5125.4e3;
    }
    transport
    {
        mu              0;
        Pr              0.7;
    }
}

C2H2O2
{
    specie
    {
        molWeight       58.03704;
    }
    equationOfState
    {
        rho              0.903;//700;//
    }
    thermodynamics
    {
        Cp              2000;//710;
        Hf             -3650.18e3;
    }
    transport
    {
        mu              0;
        Pr              0.7;
    }
}

CH3CHO
{
    specie
    {
        molWeight       44.05358;
    }
    equationOfState
    {
        rho            0.6863;// 700;//
    }
    thermodynamics
    {
        Cp              2000;//710;
        Hf              -3756.09e3;
    }
    transport
    {
        mu              0;
        Pr              0.7;
    }
}

C6H6O3
{
    specie
    {
        molWeight       126.11292;
    }
    equationOfState
    {
        rho             1.956;//700;//
    }
    thermodynamics
    {
        Cp              2000;//710;
        Hf             -2649.87e3;
    }
    transport
    {
        mu              0;
        Pr              0.7;
    }
}

C2H5CHO
{
    specie
    {
        molWeight       58.08067;
    }
    equationOfState
    {
        rho             0.903;//700;//
    }
    thermodynamics
    {
        Cp              2000;//710;
        Hf              -3249.023e3;
    }
    transport
    {
        mu              0;
        Pr              0.7;
    }
}

CH3OH
{
    specie
    {
        molWeight       32.04243;
    }
    equationOfState
    {
        rho             0.505;//700;//
    }
    thermodynamics
    {
        Cp              2000;//710;
        Hf              -6289.08e3;
    }
    transport
    {
        mu              0;
        Pr              0.7;
    }
}

CH2O
{
    specie
    {
        molWeight       30.02649;
    }
    equationOfState
    {
        rho             0.4733;//700;//
    }
    thermodynamics
    {
        Cp              2000;//710;
        Hf              -3863.33e3;
    }
    transport
    {
        mu              0;
        Pr              0.7;
    }
}

CO
{
    specie
    {
        molWeight       28.01055;
    }
    equationOfState
    {
        rho            0.442;// 700;//
    }
    thermodynamics
    {
        Cp              2000;//710;
        Hf              -3946.43e3;
    }
    transport
    {
        mu              0;
        Pr              0.7;
    }
}

CO2
{
    specie
    {
        molWeight       44.00995;
    }
    equationOfState
    {
        rho             0.689;//700;//
    }
    thermodynamics
    {
        Cp              2000;//710;
        Hf              -8943.18e3;
    }
    transport
    {
        mu              0;
        Pr              0.7;
    }
}

H2
{
    specie
    {
        molWeight       2.01594;
    }
    equationOfState
    {
        rho             0.0317;//700;//
    }
    thermodynamics
    {
        Cp              2000;//710;
        Hf              0;
    }
    transport
    {
        mu              0;
        Pr              0.7;
    }
}

H2O
{
    specie
    {
        molWeight       18.01534;
    }
    equationOfState
    {
        rho             0.2856;//700;//
    }
    thermodynamics
    {
        Cp              2000;//710;
        Hf             -13433.33e3 ;
    }
    transport
    {
        mu              0;
        Pr              0.7;
    }
}

HCOOH
{
    specie
    {
        molWeight       46.02589;
    }
    equationOfState
    {
        rho             0.7256;//
    }
    thermodynamics
    {
        Cp              2000;//710;
        Hf              -9255.217e3;
    }
    transport
    {
        mu              0;
        Pr              0.7;
    }
}

C3H6O2
{
    specie
    {
        molWeight       74.08007;
    }
    equationOfState
    {
        rho            1.1679;// 700;//
    }
    thermodynamics
    {
        Cp              2000;//710;
        Hf              -6152.8077e3;
    }
    transport
    {
        mu              0;
        Pr              0.7;
    }
}

GCH4
{
    specie
    {
        molWeight       16.04303;
    }
    equationOfState
    {
        rho             0.253;//
    }
    thermodynamics
    {
        Cp              2000;//710;
        Hf              -4658.31e3;
    }
    transport
    {
        mu              0;
        Pr              0.7;
    }
}

CHAR
{
    specie
    {
        molWeight       12.01115;
    }
    equationOfState
    {
        rho             220;//
    }
    thermodynamics
    {
        Cp              2000;//710;
        Hf              -40.67e3;
    }
    transport
    {
        mu              0;
        Pr              0.7;
    }
}

C6H10O5
{
    specie
    {
        molWeight       162.1436;
    }
    equationOfState
    {
        rho            2.553;// 700;//
    }
    thermodynamics
    {
        Cp              2000;//710;
        Hf              -5188.68e3 ;
    }
    transport
    {
        mu              0;
        Pr              0.7;
    }
}

GMSW
{
    specie
    {
        molWeight       132.11711;
    }
    equationOfState
    {
        rho             700;//
    }
    thermodynamics
    {
        Cp              2000;//710;
        Hf              -5748.166e3;
    }
    transport
    {
        mu              0;
        Pr              0.7;
    }
}

XYHW
{
    specie
    {
        molWeight       132.11711;
    }
    equationOfState
    {
        rho             700;//
    }
    thermodynamics
    {
        Cp              2000;//710;
        Hf              -6020.476e3;
    }
    transport
    {
        mu              0;
        Pr              0.7;
    }
}

/*HCE
{
    specie
    {
        molWeight       132.11711;
    }
    equationOfState
    {
        rho             700;//
    }
    thermodynamics
    {
        Cp              100;//710;
        Hf              0;
    }
    transport
    {
        mu              0;
        Pr              0.7;
    }
}*/

HCE1
{
    specie
    {
        molWeight       132.11711;
    }
    equationOfState
    {
        rho             700;//
    }
    thermodynamics
    {
        Cp              2000;//710;
        Hf              -5509.186e3;
    }
    transport
    {
        mu              0;
        Pr              0.7;
    }
}

HCE2
{
    specie
    {
        molWeight       132.11711;
    }
    equationOfState
    {
        rho             700;//
    }
    thermodynamics
    {
        Cp              2000;//710;
        Hf             -6295.786e3;
    }
    transport
    {
        mu              0;
        Pr              0.7;
    }
}

C5H8O4
{
    specie
    {
        molWeight       132.11711;
    }
    equationOfState
    {
        rho             2.083;//700;//
    }
    thermodynamics
    {
        Cp              2000;//710;
        Hf              -4805.26e3;
    }
    transport
    {
        mu              0;
        Pr              0.7;
    }
}

C5H4O2
{
    specie
    {
        molWeight       96.08643;
    }
    equationOfState
    {
        rho             1.5147;//700;//
    }
    thermodynamics
    {
        Cp              2000;//710;
        Hf              -1572.0483e3;
    }
    transport
    {
        mu              0;
        Pr              0.7;
    }
}

GH2
{
    specie
    {
        molWeight       2.01594;
    }
    equationOfState
    {
        rho             0.03178;//700;//
    }
    thermodynamics
    {
        Cp              2000;//710;
        Hf              0;
    }
    transport
    {
        mu              0;
        Pr              0.7;
    }
}

GCO
{
    specie
    {
        molWeight       28.01055;
    }
    equationOfState
    {
        rho             0.44;//700;//
    }
    thermodynamics
    {
        Cp              2000;//710;
        Hf              -1947.5e3;
    }
    transport
    {
        mu              0;
        Pr              0.7;
    }
}

GCO2
{
    specie
    {
        molWeight       44.00995;
    }
    equationOfState
    {
        rho             0.69;//700;//
    }
    thermodynamics
    {
        Cp              2000;//710;
        Hf              -7129.64e3;
    }
    transport
    {
        mu              0;
        Pr              0.7;
    }
}

GCOH2
{
    specie
    {
        molWeight       30.02649;
    }
    equationOfState
    {
        rho             0.47;//700;//
    }
    thermodynamics
    {
        Cp              2000;//710;
        Hf              -10725.5e3;
    }
    transport
    {
        mu              0;
        Pr              0.7;
    }
}

GC2H4
{
    specie
    {
        molWeight       28.05418;
    }
    equationOfState
    {
        rho             0.437;//700;//
    }
    thermodynamics
    {
        Cp              2000;//710;
        Hf              7998.91e3;
    }
    transport
    {
        mu              0;
        Pr              0.7;
    }
}

C2H5OH
{
    specie
    {
        molWeight       46.06952;
    }
    equationOfState
    {
        rho             0.725;//700;//
    }
    thermodynamics
    {
        Cp              2000;//710;
        Hf              -5120.85e3;
    }
    transport
    {
        mu              0;
        Pr              0.7;
    }
}

CH3COOH
{
    specie
    {
        molWeight       60.05298;
    }
    equationOfState
    {
        rho             0.9467;//700;//
    }
    thermodynamics
    {
        Cp              2000;//710;
        Hf              -8075.033e3;
    }
    transport
    {
        mu              0;
        Pr              0.7;
    }
}

GCH3OH
{
    specie
    {
        molWeight       32.04243;
    }
    equationOfState
    {
        rho             0.505;//700;//
    }
    thermodynamics
    {
        Cp              2000;//710;
        Hf             -6289.08e3 ;
    }
    transport
    {
        mu              0;
        Pr              0.7;
    }
}

LIGC
{
    specie
    {
        molWeight       258.27643;
    }
    equationOfState
    {
        rho             700;//
    }
    thermodynamics
    {
        Cp              2000;//710;
        Hf             -4206.566e3;
    }
    transport
    {
        mu              0;
        Pr              0.7;
    }
}

LIGCC
{
    specie
    {
        molWeight       258.27643;
    }
    equationOfState
    {
        rho             700;//
    }
    thermodynamics
    {
        Cp             2000;//1 100;//710;
        Hf              -3137.028e3;//0;
    }
    transport
    {
        mu              0;
        Pr              0.7;
    }
}

C9H10O2
{
    specie
    {
        molWeight       150.17885;
    }
    equationOfState
    {
        rho             2.3423;//700;//
    }
    thermodynamics
    {
        Cp             2000;// 100;//710;
        Hf              -1372.35e3;
    }
    transport
    {
        mu              0;
        Pr              0.7;
    }
}

C6H5OH
{
    specie
    {
        molWeight       94.11412;
    }
    equationOfState
    {
        rho            1.484;// 700;//
    }
    thermodynamics
    {
        Cp              2000;//710;
        Hf              -1023.74e3;
    }
    transport
    {
        mu              0;
        Pr              0.7;
    }
}

C2H4
{
    specie
    {
        molWeight       28.05418;
    }
    equationOfState
    {
        rho              0.437;//700;//
    }
    thermodynamics
    {
        Cp              2000;//710;
        Hf              7998.91e3;
    }
    transport
    {
        mu              0;
        Pr              0.7;
    }
}

LIGH
{
    specie
    {
        molWeight       436.46306;
    }
    equationOfState
    {
        rho             700;//
    }
    thermodynamics
    {
        Cp             2000;// 100;//710;
        Hf             -4142.89e3;// 0;
    }
    transport
    {
        mu              0;
        Pr              0.7;
    }
}

LIGOH
{
    specie
    {
        molWeight       378.38239;
    }
    equationOfState
    {
        rho             700;//
    }
    thermodynamics
    {
        Cp              2000;//100;//710;
        Hf              -3653.14e3;//0;
    }
    transport
    {
        mu              0;
        Pr              0.7;
    }
}

LIGO
{
    specie
    {
        molWeight       422.39234;
    }
    equationOfState
    {
        rho             700;//
    }
    thermodynamics
    {
        Cp              2000;//710;
        Hf              -4715.21e3;//0;
    }
    transport
    {
        mu              0;
        Pr              0.7;
    }
}

CH4
{
    specie
    {
        molWeight       16.04303;
    }
    equationOfState
    {
        rho             0.253;//700;//
    }
    thermodynamics
    {
        Cp              2000;//710;
        Hf              -4658.31e3;
    }
    transport
    {
        mu              0;
        Pr              0.7;
    }
}

LIG
{
    specie
    {
        molWeight       208.21589;
    }
    equationOfState
    {
        rho             700;//
    }
    thermodynamics
    {
        Cp              2000;//710;
        Hf              -2911.38e3;
    }
    transport
    {
        mu              0;
        Pr              0.7;
    }
}

C11H12O4
{
    specie
    {
        molWeight       208.21589;
    }
    equationOfState
    {
        rho              3.276;//700;//
    }
    thermodynamics
    {
        Cp              2000;//710;
        Hf              -2333.38e3;//0;
    }
    transport
    {
        mu              0;
        Pr              0.7;
    }
}

C6H5OCH3
{
    specie
    {
        molWeight       108.14121;
    }
    equationOfState
    {
        rho             1.7048;//700;//
    }
    thermodynamics
    {
        Cp              2000;//710;
        Hf              -661.605e3;
    }
    transport
    {
        mu              0;
        Pr              0.7;
    }
}

TGL
{
    specie
    {
        molWeight       897.42835;
    }
    equationOfState
    {
        rho             700;//
    }
    thermodynamics
    {
        Cp              2000;//710;
        Hf              -1723.057e3;
    }
    transport
    {
        mu              0;
        Pr              0.7;
    }
}


C2H3CHO
{
    specie
    {
        molWeight       56.06473;
    }
    equationOfState
    {
        rho             0.8839;//;//
    }
    thermodynamics
    {
        Cp              2000;//710;
        Hf              -1166.503;
    }
    transport
    {
        mu              0;
        Pr              0.7;
    }
}

FFA
{
    specie
    {
        molWeight       280.45454;
    }
    equationOfState
    {
        rho             4.421;//700;//
    }
    thermodynamics
    {
        Cp              2000;//710;
        Hf              -1587.495e3;
    }
    transport
    {
        mu              0;
        Pr              0.7;
    }
}

TANN
{
    specie
    {
        molWeight       304.25869;
    }
    equationOfState
    {
        rho             700;//
    }
    thermodynamics
    {
        Cp              2000;//710;
        Hf              -3548.656e3;
    }
    transport
    {
        mu              0;
        Pr              0.7;
    }
}

ITANN
{
    specie
    {
        molWeight       164.11868;
    }
    equationOfState
    {
        rho             700;//
    }
    thermodynamics
    {
        Cp              2000;//710;
        Hf              -3759.368e3;
    }
    transport
    {
        mu              0;
        Pr              0.7;
    }
}

GC6H5OH
{
    specie
    {
        molWeight       94.11412;
    }
    equationOfState
    {
        rho             1.484;//700;//
    }
    thermodynamics
    {
        Cp              2000;//710;
        Hf              -1023.74e3;
    }
    transport
    {
        mu              0;
        Pr              0.7;
    }
}

ACQUA
{
    specie
    {
        molWeight       18.01534;
    }
    equationOfState
    {
        rho             1000;//
    }
    thermodynamics
    {
        Cp              4184;//710;
        Hf              -15877.7778e3;
    }
    transport
    {
        mu              0;
        Pr              0.7;
    }
}

HMWL
{
    specie
    {
        molWeight       380.48836;
    }
    equationOfState
    {
        rho             700;//
    }
    thermodynamics
    {
        Cp              2000;//710;
        Hf              438.91e3;
    }
    transport
    {
        mu              0;
        Pr              0.7;
    }
}

O2
{
    specie
    {
        molWeight       32;
    }
    equationOfState
    {
        rho             0.5044;//1.4;
    }
    thermodynamics
    {
        Cp              2000;//100;
        Hf              0;
    }
    transport
    {
        mu              0;
        Pr              0.7;
    }
}
