/*--------------------------------*- C++ -*----------------------------------*\
| =========                 |                                                 |
| \\      /  F ield         | OpenFOAM: The Open Source CFD Toolbox           |
|  \\    /   O peration     | Version:  dev                                   |
|   \\  /    A nd           | Web:      www.OpenFOAM.org                      |
|    \\/     M anipulation  |                                                 |
\*---------------------------------------------------------------------------*/
FoamFile
{
    version     2.0;
    format      ascii;
    class       dictionary;
    location    "system";
    object      controlDict;
}
// * * * * * * * * * * * * * * * * * * * * * * * * * * * * * * * * * * * * * //

application     chemFoam;

startFrom       startTime;

startTime       0;

stopAt          endTime;

endTime         30;

deltaT          1;

maxDeltaT       1;//100;

adjustTimeStep  yes;

writeControl    runTime;

writeInterval   1;

purgeWrite      0;

writeFormat     ascii;

writeCompression uncompressed;

timeFormat      general;

timePrecision   8;

runTimeModifiable yes;

DebugSwitches
{
    SolverPerformance   0;
}

// ************************************************************************* //
