/*--------------------------------*- C++ -*----------------------------------*\
  =========                 |
  \\      /  F ield         | OpenFOAM: The Open Source CFD Toolbox
   \\    /   O peration     | Website:  https://openfoam.org
    \\  /    A nd           | Version:  dev
     \\/     M anipulation  |
\*---------------------------------------------------------------------------*/
FoamFile
{
    version     2.0;
    format      ascii;
    class       dictionary;
    location    "constant";
    object      phaseProperties;
}
// * * * * * * * * * * * * * * * * * * * * * * * * * * * * * * * * * * * * * //

type    basicTwoPhaseSystem;

phases (solids gas);

solids
{
    type          purePhaseModel;

    diameterModel constant;

    constantCoeffs
    {
        d               462e-6;
    }

    residualAlpha   1e-5;
    alphaMax 0.65;
}

gas
{
    type          purePhaseModel;

    diameterModel constant;
    constantCoeffs
    {
        d               1;
    }
    residualAlpha   1e-5;
}

blending
{
    default
    {
        type            none;
        residualAlpha   1e-6;
        continuousPhase gas;
    }
}

surfaceTension
(
    (gas and solids)
    {
        type            constant;
        sigma           0;
    }
);

aspectRatio
(
);

drag
(
    (solids in gas)
    {
        type            GidaspowErgunWenYu;
        residualAlpha   1e-5;
        residualRe      1e-5;
        swarmCorrection
        {
            type        none;
        }
    }
);

virtualMass
(
    (solids in gas)
    {
        type            constantCoefficient;
        Cvm             0;
    }
);

heatTransfer
(
    (solids in gas)
    {
        type            RanzMarshall;
        residualAlpha   1e-4;
    }
);

phaseTransfer
(
);

lift
(
);

wallLubrication
(
);

turbulentDispersion
(
);

kineticTheory
{
    alphaMax                0.65;
    residualAlpha           1e-6;

    radialModel             CarnahanStarling;
    viscosityModel          Syamlal;
    conductivityModel       Syamlal;
    granularPressureModel   SyamlalRogersOBrien;
    frictionalStressModel   Schaeffer;

    coeffRest
    (
        (solids and solids)   0.8
    );
    coeffFric
    (
        (solids and solids)   0.1
    );

    SchaefferCoeffs
    {
        phi                     36;
        alphaMinFrictionByAlphap 0.90;
    }
}

// Minimum allowable pressure
pMin            10000;


// ************************************************************************* //
