/*--------------------------------*- C++ -*----------------------------------*\
  =========                 |
  \\      /  F ield         | OpenFOAM: The Open Source CFD Toolbox
   \\    /   O peration     | Website:  https://openfoam.org
    \\  /    A nd           | Version:  dev
     \\/     M anipulation  |
\*---------------------------------------------------------------------------*/
FoamFile
{
    version     2.0;
    format      ascii;
    class       dictionary;
    object      blockMeshDict;
}
// * * * * * * * * * * * * * * * * * * * * * * * * * * * * * * * * * * * * * //

domain
{
    xMin -4;
    xMax  4;
    yMin -2;
    yMax  2;

    // Number of cells
    yCells  80; // aerofoil to far field
    xUCells 30; // upstream
    xMCells 30; // middle
    xDCells 40; // downstream

    // Mesh grading
    yGrading    40;  // aerofoil to far field
    xUGrading   5;   // towards centre upstream
    leadGrading 5; // towards leading edge
    xDGrading   .10;  // downstream
}

aerofoil
{
    xLead   0;
    yLead   0;
    xTrail  1;
    yTrail  0;
    xUpper  0.3;
    yUpper  0.06;
    xLower  0.3;
    yLower -0.06;
}

geometry
{
    aerofoil
    {
        type   triSurfaceMesh;
        file   "naca0012.stl";//"NACA0012.obj";
    }
    cylinder
    {
        type   searchableCylinder;
        point1 ($:aerofoil.xUpper 0 -1e3);
        point2 ($:aerofoil.xUpper 0 1e3);
        radius $:domain.yMax;
    }
}

vertices
(
    project ($aerofoil.xLower $domain.yMin -0.1) (cylinder)
    ($aerofoil.xTrail $domain.yMin -0.1)
    ($domain.xMax $domain.yMin -0.1)

    project ($domain.xMin     $aerofoil.yLead  -0.1) (cylinder) //3
    project ($aerofoil.xLead  $aerofoil.yLead  -0.1) (aerofoil) //4
    project ($aerofoil.xTrail $aerofoil.yTrail -0.1) (aerofoil)
    ($domain.xMax $aerofoil.yTrail -0.1)

    project ($aerofoil.xLower $aerofoil.yLower -0.1) (aerofoil)
    project ($aerofoil.xUpper $aerofoil.yUpper -0.1) (aerofoil) //8

    project ($aerofoil.xUpper $domain.yMax -0.1) (aerofoil)  //9
    project ($aerofoil.xTrail $domain.yMax -0.1) (aerofoil)
    ($domain.xMax $domain.yMax -0.1)

    project ($aerofoil.xLower $domain.yMin 0.1) (cylinder)
    ($aerofoil.xTrail  $domain.yMin 0.1)
    ($domain.xMax $domain.yMin 0.1)

    project ($domain.xMin     $aerofoil.yLead 0.1) (cylinder) //15
    project ($aerofoil.xLead  $aerofoil.yLead 0.1) (aerofoil) //16
    project ($aerofoil.xTrail $aerofoil.yTrail 0.1) (aerofoil)
    ($domain.xMax $aerofoil.yTrail 0.1)

    project ($aerofoil.xLower $aerofoil.yLower 0.1) (aerofoil)
    project ($aerofoil.xUpper $aerofoil.yUpper 0.1) (aerofoil) //20

    project ($aerofoil.xUpper $domain.yMax 0.1) (aerofoil) //21
    project ($aerofoil.xTrail $domain.yMax 0.1) (aerofoil)
    ($domain.xMax $domain.yMax 0.1)
);

blocks
(
    hex (7 4 3 0 19 16 15 12)
    ($:domain.xUCells $:domain.yCells 1)
    edgeGrading
    (
        $:domain.leadGrading $:domain.leadGrading $:domain.xUGrading $:domain.xUGrading
        $:domain.yGrading $:domain.yGrading $:domain.yGrading $:domain.yGrading
        1 1 1 1
    )

    hex (5 7 0 1 17 19 12 13)
    ($:domain.xMCells $:domain.yCells 1)
    simpleGrading (1 $:domain.yGrading 1)

    hex (6 5 1 2 18 17 13 14)
    ($:domain.xDCells $:domain.yCells 1)
    simpleGrading ($:domain.xDGrading $:domain.yGrading 1)

    hex (20 16 15 21 8 4 3 9)
    ($:domain.xUCells $:domain.yCells 1)
    edgeGrading
    (
        $:domain.leadGrading $:domain.leadGrading $:domain.xUGrading $:domain.xUGrading
        $:domain.yGrading $:domain.yGrading $:domain.yGrading $:domain.yGrading
        1 1 1 1
    )

    hex (8 5 10 9 20 17 22 21)
    ($:domain.xMCells $:domain.yCells 1)
    simpleGrading (1 $:domain.yGrading 1)

    hex (18 17 22 23 6 5 10 11)
    ($:domain.xDCells $:domain.yCells 1)
    simpleGrading ($:domain.xDGrading $:domain.yGrading 1)
);

edges
(

    project 4 7 (aerofoil)
    project 7 5 (aerofoil)
    project 4 8 (aerofoil)
    project 8 5 (aerofoil)

    project 16 19 (aerofoil)
    project 19 17 (aerofoil)
    project 16 20 (aerofoil)
    project 20 17 (aerofoil)

    project 3 0 (cylinder)
    project 3 9 (cylinder)
    project 15 12 (cylinder)
    project 15 21 (cylinder)
);

boundary
(
    aerofoil
    {
        type wall;
        faces
        (
            (4 7 19 16)
            (7 5 17 19)
            (5 8 20 17)
            (8 4 16 20)
        );
    }

    inlet
    {
        type patch;
        inGroups (freestream);
        faces
        (
            (3 0 12 15)
            (0 1 13 12)
            (1 2 14 13)
            (11 10 22 23)
            (10 9 21 22)
            (9 3 15 21)
        );
    }

    outlet
    {
        type patch;
        inGroups (freestream);
        faces
        (
            (2 6 18 14)
            (6 11 23 18)
        );
    }

    back
    {
        type empty;
        faces
        (
            (3 4 7 0)
            (7 5 1 0)
            (5 6 2 1)
            (3 9 8 4)
            (9 10 5 8)
            (10 11 6 5)
        );
    }

    front
    {
        type empty;
        faces
        (
            (15 16 19 12)
            (19 17 13 12)
            (17 18 14 13)
            (15 16 20 21)
            (20 17 22 21)
            (17 18 23 22)
        );
    }
);

// ************************************************************************* //
