/*--------------------------------*- C++ -*----------------------------------*\
| =========                 |                                                 |
| \\      /  F ield         | OpenFOAM: The Open Source CFD Toolbox           |
|  \\    /   O peration     | Version:  dev                                   |
|   \\  /    A nd           | Web:      www.OpenFOAM.org                      |
|    \\/     M anipulation  |                                                 |
\*---------------------------------------------------------------------------*/
FoamFile
{
    version     2.0;
    format      ascii;
    class       dictionary;
    object      blockMeshDict;
}
// * * * * * * * * * * * * * * * * * * * * * * * * * * * * * * * * * * * * * //

convertToMeters 1;

vertices
(
    (0 0 0)
    (0 1 0)
    (1 0 0)
    (1 1 0)
    (0 0 1)
    (0 1 1)
    (1 0 1)
    (1 1 1)
);

blocks
(
    hex (0 2 3 1 4 6 7 5) (1 1 1) simpleGrading (1 1 1)
);

edges
(
);

boundary
(
);

mergePatchPairs
(
);

// ************************************************************************* //
