/*--------------------------------*- C++ -*----------------------------------*\
  =========                 |
  \\      /  F ield         | OpenFOAM: The Open Source CFD Toolbox
   \\    /   O peration     | Website:  https://openfoam.org
    \\  /    A nd           | Version:  dev
     \\/     M anipulation  |
\*---------------------------------------------------------------------------*/
FoamFile
{
    version     2.0;
    format      ascii;
    class       dictionary;
    location    "constant";
    object      initialConditions;
}
// * * * * * * * * * * * * * * * * * * * * * * * * * * * * * * * * * * * * * //

constantProperty temperature;//pressure;

fractionBasis   mass;

fractions
{
    C6H10O5         0.40; //levoglucosan
    C5H8O4          0.38;
    C9H10O2         0.22;
    //N2              0;
    //O2              1;
}

p               5.06625e+06;

T               773;


// ************************************************************************* //
