/*--------------------------------*- C++ -*----------------------------------*\
| =========                 |                                                 |
| \\      /  F ield         | OpenFOAM: The Open Source CFD Toolbox           |
|  \\    /   O peration     | Version:  dev                                   |
|   \\  /    A nd           | Web:      www.OpenFOAM.org                      |
|    \\/     M anipulation  |                                                 |
\*---------------------------------------------------------------------------*/
FoamFile
{
    version     2.0;
    format      ascii;
    class       dictionary;
    object      blockMeshDict;
}
// * * * * * * * * * * * * * * * * * * * * * * * * * * * * * * * * * * * * * //

convertToMeters .001;

pi  3.141529;
h   1000;
D   150;
depth 10;
R   #calc "$D/2";
nR  #calc "-$R";
r   #calc "$R/2";
nr  #calc "-$r";
xy  #calc "$R*sin($pi/4)";
nxy #calc "-$xy";

vertices
(
    ($nR 0  0)
    ($R  0  0)
    ($R  $h 0)
    ($nR $h 0)

    ($nR 0  $depth)
    ($R  0  $depth)
    ($R  $h $depth)
    ($nR $h $depth)
);

blocks
(
    hex (0 1 2 3 4 5 6 7) (38 100 1)
    simpleGrading
    (
        (
            (   0.0621352389 0.107142857143 4)    // 20% y-dir, 30% cells, expansion = 4
            (   0.8757295222 0.785714285714 1)    // 60% y-dir, 40% cells, expansion = 1
            (   0.0621352389 0.107142857143 0.25)  // 20% y-dir, 30% cells, expansion = 0.25 (1/4)
        )
	    1                  // y-direction expansion ratio
        1                  // z-direction expansion ratio
    )
);

edges
(
);

patches
(
    patch inlet
    (
        (0 1 5 4)
    )
    patch outlet
    (
        (2 3 7 6)
    )
    wall walls
    (
        (0 3 7 4)
        (1 2 6 5)
    )
);

mergePatchPairs
(
);

// ************************************************************************* //
