THERMO ALL
300.   1000.   3500. 
C2H3CHO                 C   3H   4O   1     S    300.00   3500.00  700.00      1
 0.00000000e+00 0.00000000e+00 0.00000000e+00 0.00000000e+00 0.00000000e+00    2
 0.00000000e+00 0.00000000e+00 0.00000000e+00 0.00000000e+00 0.00000000e+00    3
 0.00000000e+00 0.00000000e+00 0.00000000e+00 0.00000000e+00                   4
ACQUA                   H   2O   1          G    300.00   3500.00 1590.00      1
 2.30940463e+00 3.65433887e-03-1.22983871e-06 2.11931683e-10-1.50333493e-14    2
-2.97294901e+04 8.92765177e+00 4.03530937e+00-6.87559833e-04 2.86629214e-06    3
-1.50552360e-09 2.55006790e-13-3.02783278e+04-1.99201641e-01                   4
CH3COOH                 C   5H   8O   2     S    300.00   3500.00  700.00      1
 0.00000000e+00 0.00000000e+00 0.00000000e+00 0.00000000e+00 0.00000000e+00    2
 0.00000000e+00 0.00000000e+00 0.00000000e+00 0.00000000e+00 0.00000000e+00    3
 0.00000000e+00 0.00000000e+00 0.00000000e+00 0.00000000e+00                   4
C2H5CHO                 C   3H   6O   1     G    300.00   3500.00 1720.00      1
 6.42754902e+00 2.00818525e-02-6.55464685e-06 4.84306793e-10 5.68893699e-14    2
-1.48035725e+04-9.71995026e+00-9.99780843e-02 3.52621481e-02-1.97932767e-05    3
 5.61555868e-09-6.88932126e-13-1.25581031e+04 2.53116313e+01                   4
C6H5OCH3                C   7H   8O   1     S    300.00   3500.00  700.00      1
 0.00000000e+00 0.00000000e+00 0.00000000e+00 0.00000000e+00 0.00000000e+00    2
 0.00000000e+00 0.00000000e+00 0.00000000e+00 0.00000000e+00 0.00000000e+00    3
 0.00000000e+00 0.00000000e+00 0.00000000e+00 0.00000000e+00                   4
CELL                    C   6H  10O   5     S    300.00   3500.00  700.00      1
 0.00000000e+00 0.00000000e+00 0.00000000e+00 0.00000000e+00 0.00000000e+00    2
 0.00000000e+00 0.00000000e+00 0.00000000e+00 0.00000000e+00 0.00000000e+00    3
 0.00000000e+00 0.00000000e+00 0.00000000e+00 0.00000000e+00                   4
CELLA                   C   6H  10O   5     S    300.00   3500.00  700.00      1
 0.00000000e+00 0.00000000e+00 0.00000000e+00 0.00000000e+00 0.00000000e+00    2
 0.00000000e+00 0.00000000e+00 0.00000000e+00 0.00000000e+00 0.00000000e+00    3
 0.00000000e+00 0.00000000e+00 0.00000000e+00 0.00000000e+00                   4
TANN                    C  15H  12O   7     S    300.00   3500.00  700.00      1
 0.00000000e+00 0.00000000e+00 0.00000000e+00 0.00000000e+00 0.00000000e+00    2
 0.00000000e+00 0.00000000e+00 0.00000000e+00 0.00000000e+00 0.00000000e+00    3
 0.00000000e+00 0.00000000e+00 0.00000000e+00 0.00000000e+00                   4
CHAR                    C   1               S    300.00   3500.00  700.00      1
 2.48989675e+00 5.14965671e-05-7.37912415e-08 3.75721674e-11-4.86583734e-15    2
 8.54527782e+04 4.81783270e+00 2.55088394e+00-2.97001640e-04 6.72990632e-07    3
-6.73648664e-10 2.49141603e-13 8.54442400e+04 4.54535738e+00                   4
C2H4                    C   2H   4          G    300.00   3500.00 1800.00      1
 4.49333672e+00 1.00335105e-02-3.62601388e-06 5.97613541e-10-3.65481279e-14    2
 3.93220822e+03-3.35192020e+00 2.66161697e-01 1.94272328e-02-1.14541158e-05    3
 3.49691054e-09-4.39228267e-13 5.45399123e+03 1.95264329e+01                   4
C2H5OH                  C   2H   6O   1     G    300.00   3500.00 1380.00      1
 4.82959470e+00 1.77552121e-02-6.21112100e-06 6.58265206e-10 1.60136692e-14    2
-3.08658494e+04 5.43180378e-01 2.48921589e-01 3.10325255e-02-2.06429833e-05    3
 7.63017938e-09-1.24701426e-12-2.96015836e+04 2.41176395e+01                   4
C3H6O2                  C   3H   6O   2     G    300.00   3500.00 1800.00      1
 1.08721654e+01 1.63593216e-02-6.08637842e-06 1.10130850e-09-8.02911326e-14    2
-4.55272952e+04-2.70748520e+01 2.66105929e+00 3.46062241e-02-2.12921305e-05    3
 6.73306853e-09-8.62480026e-13-4.25712970e+04 1.73653673e+01                   4
C11H12O4                C  11H  12O   4     G    300.00   3500.00 1280.00      1
 2.98957517e+01 4.73870505e-02-2.11603212e-05 4.60350399e-09-3.96349099e-13    2
-7.02119467e+04-1.21160681e+02-3.09348688e+00 1.50478421e-01-1.41970521e-04    3
 6.75254832e-08-1.26857982e-11-6.17667016e+04 4.61370519e+01                   4
C5H4O2                  C   5H   4O   2     G    300.00   3500.00 1430.00      1
 1.05158962e+01 2.23224229e-02-1.09267096e-05 2.56683236e-09-2.34844997e-13    2
-2.33303219e+04-2.94000374e+01-1.81996644e+00 5.68283325e-02-4.71217197e-05    3
 1.94409629e-08-3.18486782e-12-1.98022652e+04 3.45255921e+01                   4
CH2O                    C   1H   2O   1     G    300.00   3500.00  930.00      1
 1.06639253e+00 1.06960337e-02-5.54447373e-06 1.36053696e-09-1.28442554e-13    2
-1.46324373e+04 1.74071779e+01 3.13463322e+00 1.80037482e-03 8.80336316e-06    3
-8.92465077e-09 2.63639286e-12-1.50171301e+04 7.57920580e+00                   4
CH3OH                   C   1H   4O   1     G    300.00   3500.00  700.00      1
 9.34193000e-01 1.60266556e-02-8.00101466e-06 1.97129714e-09-1.91599484e-13    2
-2.50979789e+04 1.91008457e+01 2.88895785e+00 4.85657077e-03 1.59348814e-05    3
-2.08247943e-08 7.94986176e-12-2.53716460e+04 1.03674509e+01                   4
CH4                     C   1H   4          G    300.00   3500.00 1070.00      1
-2.82321416e-01 1.42739336e-02-6.77628877e-06 1.55380951e-09-1.39473841e-13    2
-9.36383584e+03 2.03507024e+01 2.85765313e+00 2.53571100e-03 9.67916346e-06    3
-8.69880870e-09 2.25599770e-12-1.00357904e+04 4.98969392e+00                   4
GC2H4                   C   2H   4          G    300.00   3500.00 1800.00      1
 4.49333672e+00 1.00335105e-02-3.62601388e-06 5.97613541e-10-3.65481279e-14    2
 3.93220822e+03-3.35192020e+00 2.66161697e-01 1.94272328e-02-1.14541158e-05    3
 3.49691054e-09-4.39228267e-13 5.45399123e+03 1.95264329e+01                   4
GCH3OH                  C   1H   4O   1     G    300.00   3500.00  700.00      1
 9.34193000e-01 1.60266556e-02-8.00101466e-06 1.97129714e-09-1.91599484e-13    2
-2.50979789e+04 1.91008457e+01 2.88895785e+00 4.85657077e-03 1.59348814e-05    3
-2.08247943e-08 7.94986176e-12-2.53716460e+04 1.03674509e+01                   4
GCH4                    C   1H   4          G    300.00   3500.00 1070.00      1
-2.82321416e-01 1.42739336e-02-6.77628877e-06 1.55380951e-09-1.39473841e-13    2
-9.36383584e+03 2.03507024e+01 2.85765313e+00 2.53571100e-03 9.67916346e-06    3
-8.69880870e-09 2.25599770e-12-1.00357904e+04 4.98969392e+00                   4
CO                      C   1O   1          G    300.00   3500.00 1000.00      1
 2.68595014e+00 2.12486373e-03-1.04548608e-06 2.45538864e-10-2.22550981e-14    2
-1.41423615e+04 7.96579426e+00 3.81890943e+00-2.40697343e-03 5.75226966e-06    3
-4.28629830e-09 1.11070419e-12-1.43689533e+04 2.49992060e+00                   4
CO2                     C   1O   2          G    300.00   3500.00 1620.00      1
 5.07830985e+00 2.05366041e-03-5.94311265e-07 5.38675131e-11 1.66346855e-15    2
-4.92442103e+04-4.47815290e+00 2.44892797e+00 8.54596135e-03-6.60570102e-06    3
 2.52769046e-09-3.80099332e-13-4.83922906e+04 9.47557732e+00                   4
GCOH2                   C   1H   2O   1     G    300.00   3500.00  700.00      1
 0.00000000e+00 0.00000000e+00 0.00000000e+00 0.00000000e+00 0.00000000e+00    2
 0.00000000e+00 0.00000000e+00 0.00000000e+00 0.00000000e+00 0.00000000e+00    3
 0.00000000e+00 0.00000000e+00 0.00000000e+00 0.00000000e+00                   4
GCO                     C   1O   1          G    300.00   3500.00 1000.00      1
 2.68595014e+00 2.12486373e-03-1.04548608e-06 2.45538864e-10-2.22550981e-14    2
-1.41423615e+04 7.96579426e+00 3.81890943e+00-2.40697343e-03 5.75226966e-06    3
-4.28629830e-09 1.11070419e-12-1.43689533e+04 2.49992060e+00                   4
GCO2                    C   1O   2          G    300.00   3500.00 1620.00      1
 5.07830985e+00 2.05366041e-03-5.94311265e-07 5.38675131e-11 1.66346855e-15    2
-4.92442103e+04-4.47815290e+00 2.44892797e+00 8.54596135e-03-6.60570102e-06    3
 2.52769046e-09-3.80099332e-13-4.83922906e+04 9.47557732e+00                   4
GH2                     H   2               G    300.00   3500.00  750.00      1
 3.73110902e+00-8.86706214e-04 1.12286897e-06-3.74349782e-10 4.17963674e-14    2
-1.08851547e+03-5.35285855e+00 3.08866003e+00 2.53968841e-03-5.72992027e-06    3
 5.71701843e-09-1.98865970e-12-9.92148124e+02-2.43823459e+00                   4
GC6H5OH                 C   6H   6O   1     S    300.00   3500.00  700.00      1
 0.00000000e+00 0.00000000e+00 0.00000000e+00 0.00000000e+00 0.00000000e+00    2
 0.00000000e+00 0.00000000e+00 0.00000000e+00 0.00000000e+00 0.00000000e+00    3
 0.00000000e+00 0.00000000e+00 0.00000000e+00 0.00000000e+00                   4
C2H2O2                  C   2H   2O   2     G    300.00   3500.00 1700.00      1
 9.83116579e+00 4.87360532e-03-1.69443300e-06 2.65361078e-10-1.54439841e-14    2
-2.96273239e+04-2.66407027e+01 1.89947966e+00 2.35363962e-02-1.81616014e-05    3
 6.72307419e-09-9.65107677e-13-2.69305506e+04 1.58338747e+01                   4
C2H4O2                  C   2H   4O   2     G    300.00   3500.00  770.00      1
 3.40614010e+00 2.02613044e-02-1.03463461e-05 2.53497107e-09-2.40436915e-13    2
-3.88060356e+04 1.20569218e+01 4.64403525e+00 1.38306802e-02 2.18084389e-06    3
-8.31108086e-09 3.28100852e-12-3.89966715e+04 6.40833543e+00                   4
GMSW                    C   5H   8O   4     S    300.00   3500.00  700.00      1
 0.00000000e+00 0.00000000e+00 0.00000000e+00 0.00000000e+00 0.00000000e+00    2
 0.00000000e+00 0.00000000e+00 0.00000000e+00 0.00000000e+00 0.00000000e+00    3
 0.00000000e+00 0.00000000e+00 0.00000000e+00 0.00000000e+00                   4
XYHW                    C   5H   8O   4     S    300.00   3500.00  700.00      1
 0.00000000e+00 0.00000000e+00 0.00000000e+00 0.00000000e+00 0.00000000e+00    2
 0.00000000e+00 0.00000000e+00 0.00000000e+00 0.00000000e+00 0.00000000e+00    3
 0.00000000e+00 0.00000000e+00 0.00000000e+00 0.00000000e+00                   4
HCE1                    C   5H   8O   4     S    300.00   3500.00  700.00      1
 0.00000000e+00 0.00000000e+00 0.00000000e+00 0.00000000e+00 0.00000000e+00    2
 0.00000000e+00 0.00000000e+00 0.00000000e+00 0.00000000e+00 0.00000000e+00    3
 0.00000000e+00 0.00000000e+00 0.00000000e+00 0.00000000e+00                   4
HCE2                    C   5H   8O   4     S    300.00   3500.00  700.00      1
 0.00000000e+00 0.00000000e+00 0.00000000e+00 0.00000000e+00 0.00000000e+00    2
 0.00000000e+00 0.00000000e+00 0.00000000e+00 0.00000000e+00 0.00000000e+00    3
 0.00000000e+00 0.00000000e+00 0.00000000e+00 0.00000000e+00                   4
HCOOH                   C   1H   2O   2     G    300.00   3500.00 1800.00      1
 5.80573302e+00 6.82017393e-03-2.95480608e-06 6.14340060e-10-5.06753135e-14    2
-4.80534416e+04-6.42993389e+00 1.36256505e+00 1.66938805e-02-1.11828949e-05    3
 3.66178037e-09-4.73930912e-13-4.64539011e+04 1.76174180e+01                   4
H2                      H   2               G    300.00   3500.00  750.00      1
 3.73110902e+00-8.86706214e-04 1.12286897e-06-3.74349782e-10 4.17963674e-14    2
-1.08851547e+03-5.35285855e+00 3.08866003e+00 2.53968841e-03-5.72992027e-06    3
 5.71701843e-09-1.98865970e-12-9.92148124e+02-2.43823459e+00                   4
H2O                     H   2O   1          G    300.00   3500.00 1590.00      1
 2.30940463e+00 3.65433887e-03-1.22983871e-06 2.11931683e-10-1.50333493e-14    2
-2.97294901e+04 8.92765177e+00 4.03530937e+00-6.87559833e-04 2.86629214e-06    3
-1.50552360e-09 2.55006790e-13-3.02783278e+04-1.99201641e-01                   4
C6H6O3                  C   6H   6O   3     G    300.00   3500.00 1770.00      1
 1.98638073e+01 1.79335016e-02-5.95408859e-06 8.93593939e-10-4.95459880e-14    2
-4.95264845e+04-7.44496694e+01 7.10718582e-01 6.12173180e-02-4.26352889e-05    3
 1.47094886e-08-2.00094354e-12-4.27462910e+04 2.88889342e+01                   4
ITANN                   C   8H   4O   4     S    300.00   3500.00  700.00      1
 0.00000000e+00 0.00000000e+00 0.00000000e+00 0.00000000e+00 0.00000000e+00    2
 0.00000000e+00 0.00000000e+00 0.00000000e+00 0.00000000e+00 0.00000000e+00    3
 0.00000000e+00 0.00000000e+00 0.00000000e+00 0.00000000e+00                   4
LIG                     C  11H  12O   4     G    300.00   3500.00 1280.00      1
 2.98957517e+01 4.73870505e-02-2.11603212e-05 4.60350399e-09-3.96349099e-13    2
-7.02119467e+04-1.21160681e+02-3.09348688e+00 1.50478421e-01-1.41970521e-04    3
 6.75254832e-08-1.26857982e-11-6.17667016e+04 4.61370519e+01                   4
LIGC                    C  15H  14O   4     S    300.00   3500.00  700.00      1
 0.00000000e+00 0.00000000e+00 0.00000000e+00 0.00000000e+00 0.00000000e+00    2
 0.00000000e+00 0.00000000e+00 0.00000000e+00 0.00000000e+00 0.00000000e+00    3
 0.00000000e+00 0.00000000e+00 0.00000000e+00 0.00000000e+00                   4
LIGCC                   C  15H  14O   4     S    300.00   3500.00  700.00      1
 0.00000000e+00 0.00000000e+00 0.00000000e+00 0.00000000e+00 0.00000000e+00    2
 0.00000000e+00 0.00000000e+00 0.00000000e+00 0.00000000e+00 0.00000000e+00    3
 0.00000000e+00 0.00000000e+00 0.00000000e+00 0.00000000e+00                   4
LIGH                    C  22H  28O   9     S    300.00   3500.00  700.00      1
 0.00000000e+00 0.00000000e+00 0.00000000e+00 0.00000000e+00 0.00000000e+00    2
 0.00000000e+00 0.00000000e+00 0.00000000e+00 0.00000000e+00 0.00000000e+00    3
 0.00000000e+00 0.00000000e+00 0.00000000e+00 0.00000000e+00                   4
LIGO                    C  20H  22O  10     S    300.00   3500.00  700.00      1
 0.00000000e+00 0.00000000e+00 0.00000000e+00 0.00000000e+00 0.00000000e+00    2
 0.00000000e+00 0.00000000e+00 0.00000000e+00 0.00000000e+00 0.00000000e+00    3
 0.00000000e+00 0.00000000e+00 0.00000000e+00 0.00000000e+00                   4
LIGOH                   C  19H  22O   8     S    300.00   3500.00  700.00      1
 0.00000000e+00 0.00000000e+00 0.00000000e+00 0.00000000e+00 0.00000000e+00    2
 0.00000000e+00 0.00000000e+00 0.00000000e+00 0.00000000e+00 0.00000000e+00    3
 0.00000000e+00 0.00000000e+00 0.00000000e+00 0.00000000e+00                   4
C6H10O5                 C   6H  10O   5     G    300.00   3500.00 1220.00      1
 1.54889718e+01 4.96354387e-02-2.45944509e-05 5.82332585e-09-5.35665863e-13    2
-1.09180509e+05-4.81819837e+01-7.95116461e+00 1.26488345e-01-1.19085729e-04    3
 5.74579042e-08-1.11165221e-11-1.03461116e+05 6.95642163e+01                   4
CH3CHO                  C   2H   4O   1     G    300.00   3500.00 1800.00      1
 6.27018126e+00 1.06201871e-02-3.82264672e-06 6.56340789e-10-4.60549581e-14    2
-2.29794782e+04-8.60119259e+00 9.91751377e-01 2.23500313e-02-1.35975169e-05    3
 4.27666307e-09-5.48877497e-13-2.10792434e+04 1.99667711e+01                   4
C9H10O2                 C   9H  10O   2     G    300.00   3500.00 1620.00      1
 2.64048781e+01 2.84903123e-02-1.03289369e-05 1.78607618e-09-1.22280426e-13    2
-3.71439509e+04-1.10770565e+02-2.04331024e+00 9.87327525e-02-7.53682334e-05    3
 2.85512188e-08-4.25270367e-12-2.79267379e+04 4.01996488e+01                   4
C6H5OH                  C   6H   6O   1     S    300.00   3500.00  700.00      1
 0.00000000e+00 0.00000000e+00 0.00000000e+00 0.00000000e+00 0.00000000e+00    2
 0.00000000e+00 0.00000000e+00 0.00000000e+00 0.00000000e+00 0.00000000e+00    3
 0.00000000e+00 0.00000000e+00 0.00000000e+00 0.00000000e+00                   4
FFA                     C  18H  32O   2     S    300.00   3500.00  700.00      1
 0.00000000e+00 0.00000000e+00 0.00000000e+00 0.00000000e+00 0.00000000e+00    2
 0.00000000e+00 0.00000000e+00 0.00000000e+00 0.00000000e+00 0.00000000e+00    3
 0.00000000e+00 0.00000000e+00 0.00000000e+00 0.00000000e+00                   4
TGL                     C  57H 100O   7     S    300.00   3500.00  700.00      1
 0.00000000e+00 0.00000000e+00 0.00000000e+00 0.00000000e+00 0.00000000e+00    2
 0.00000000e+00 0.00000000e+00 0.00000000e+00 0.00000000e+00 0.00000000e+00    3
 0.00000000e+00 0.00000000e+00 0.00000000e+00 0.00000000e+00                   4
C5H8O4                  C   5H   8O   4     G    300.00   3500.00 1230.00      1
 1.19601536e+01 3.99450843e-02-1.95947373e-05 4.60940117e-09-4.22302290e-13    2
-8.26385858e+04-2.91875208e+01-6.95683231e+00 1.01463738e-01-9.46174851e-05    3
 4.52721371e-08-8.68708602e-12-7.79850073e+04 6.59920851e+01                   4
END
